extensions/entsoe/resources/V1_0/mergedXnode.xml
<?xml version="1.0" encoding="UTF-8"?>
<iidm:network xmlns:iidm="http://www.powsybl.org/schema/iidm/1_0" xmlns:mxn="http://www.powsybl.org/schema/iidm/ext/merged_xnode/1_0" id="test" caseDate="2016-06-27T12:27:58.535000+02:00" forecastDistance="0" sourceFormat="test">
    <iidm:substation id="S1" country="FR">
        <iidm:voltageLevel id="VL1" nominalV="400" topologyKind="BUS_BREAKER">
            <iidm:busBreakerTopology>
                <iidm:bus id="B1"/>
            </iidm:busBreakerTopology>
        </iidm:voltageLevel>
    </iidm:substation>
    <iidm:substation id="S2" country="FR">
        <iidm:voltageLevel id="VL2" nominalV="400" topologyKind="BUS_BREAKER">
            <iidm:busBreakerTopology>
                <iidm:bus id="B2"/>
            </iidm:busBreakerTopology>
        </iidm:voltageLevel>
    </iidm:substation>
    <iidm:line id="L" r="1" x="1" g1="0" b1="0" g2="0" b2="0" bus1="B1" connectableBus1="B1" voltageLevelId1="VL1" bus2="B2" connectableBus2="B2" voltageLevelId2="VL2"/>
    <iidm:extension id="L">
        <mxn:mergedXnode rdp="0.5" xdp="0.5" xnodeP1="1" xnodeQ1="2" xnodeP2="3" xnodeQ2="4" code="XXXXXX11"/>
    </iidm:extension>
</iidm:network>
